<NUMBER OF ZONES> 24
<TOTAL OD FLOW> 360600.0
<END OF METADATA>


Origin 	1 
   21 :   3000.0; 

Origin 	6 
    5 :   2500.0;    14 :   2000.0;

Origin 	7 
   10 :   1000.0;    16 :   1000.0;    23 :   2000.0;  

Origin 	9 
   16 :   4000.0;

Origin 	10 
    7 :   1500.0;     9 :    500.0;    12 :   2500.0;    13 :   1000.0;    16 :   2500.0; 
   18 :   2000.0;    23 :   1000.0;    24 :   2500.0; 

Origin 	14 
    7 :   1000.0;     9 :    500.0;    11 :   2000.0;    16 :   2000.0;    21 :   1000.0; 
   24 :   1500.0; 

Origin 	15  
   10 :    500.0;    14 :    500.0;    16 :   2000.0;    20 :   1000.0;    21 :   2500.0; 
   23 :   2000.0;    24 :   3000.0; 

Origin 	16 
    9 :   1500.0;    10 :    500.0;    12 :   1000.0;    13 :   1000.0;    14 :   3000.0; 
   15 :   1000.0;    19 :   1500.0; 

Origin 	17 
   19 :   3500.0;    20 :   3000.0;    24 :   2500.0; 

Origin 	19 
   15 :   1500.0;    16 :   3500.0;    17 :   1500.0; 

Origin 	20 
    5 :   2000.0;    12 :   1000.0;    14 :    500.0;    23 :   3000.0;   

Origin 	21 
   14 :   1000.0;    23 :    500.0; 

Origin 	22 
   23 :   3500.0;    24 :   2000.0; 

Origin 	23 
    5 :   1000.0;     9 :    500.0;    11 :   2000.0;    13 :   2500.0;    15 :   3000.0;  

Origin 	24 
    6 :   1000.0;     7 :    500.0;    17 :   2000.0;    19 :    500.0; 



